Circuit: * H:\Drive\[W3AXL]\[Design]\NRG Anemometer\nrg-control-box\input-sim.asc

WARNING: Less than two connections to node BUFF.  This node is used by A1.
Direct Newton iteration for .op point succeeded.

Date: Mon Aug 24 20:11:17 2020
Total elapsed time: 0.042 seconds.

tnom = 27
temp = 27
method = modified trap
totiter = 2135
traniter = 2117
tranpoints = 1044
accept = 1044
rejected = 0
matrix size = 9
fillins = 1
solver = Normal
Matrix Compiler1: 386 bytes object code size  0.1/0.1/[0.0]
Matrix Compiler2: off  [0.1]/0.1/0.1

